Version 4
SHEET 1 3040 1252
WIRE 512 -144 400 -144
WIRE 1600 -80 496 -80
WIRE 496 32 496 -80
WIRE 608 32 496 32
WIRE -928 48 -1632 48
WIRE -752 48 -848 48
WIRE -192 160 -336 160
WIRE 400 160 400 -144
WIRE 400 160 -112 160
WIRE 496 160 496 32
WIRE -928 208 -1392 208
WIRE -640 208 -848 208
WIRE -336 208 -336 160
WIRE -336 208 -448 208
WIRE -640 240 -816 240
WIRE -192 240 -448 240
WIRE 400 240 400 160
WIRE 400 240 -112 240
WIRE 432 240 400 240
WIRE -1632 256 -1632 48
WIRE 544 256 496 256
WIRE -752 272 -752 48
WIRE -736 272 -752 272
WIRE -656 272 -672 272
WIRE -640 272 -656 272
WIRE 544 272 544 256
WIRE 592 272 544 272
WIRE -928 288 -960 288
WIRE -816 288 -816 240
WIRE -816 288 -848 288
WIRE -752 304 -752 272
WIRE -640 304 -752 304
WIRE 400 336 400 240
WIRE -1392 384 -1392 208
WIRE 400 464 400 416
WIRE 544 464 544 272
WIRE 544 464 400 464
WIRE 608 464 544 464
WIRE 800 464 688 464
WIRE 992 464 880 464
WIRE 1296 464 992 464
WIRE 1360 464 1296 464
WIRE -1632 496 -1632 336
WIRE -1392 496 -1392 464
WIRE -960 496 -960 288
WIRE -656 496 -656 272
WIRE 400 496 400 464
WIRE 1296 544 1296 464
WIRE 1600 544 1600 -80
WIRE 544 560 544 464
WIRE 992 560 992 464
WIRE 544 720 544 624
WIRE 992 720 992 624
WIRE 992 720 544 720
WIRE 1296 720 1296 624
WIRE 1296 720 992 720
WIRE 1600 720 1600 624
WIRE 1600 720 1296 720
WIRE 1664 720 1600 720
FLAG -960 496 0
FLAG -1392 496 0
FLAG -1632 496 0
FLAG -656 496 0
FLAG 608 32 dut_drain_voltage
IOPIN 608 32 BiDir
FLAG 592 272 dut_source_voltage
IOPIN 592 272 BiDir
FLAG 512 -144 dut_gate_voltage
IOPIN 512 -144 BiDir
FLAG 400 496 0
FLAG 1360 464 load_positive_voltage
IOPIN 1360 464 BiDir
FLAG 1664 720 load_negative_voltage
IOPIN 1664 720 BiDir
SYMBOL 1EDN7550B -544 256 R0
SYMATTR InstName U1
SYMBOL res -832 192 R90
WINDOW 0 0 56 VBottom 2
WINDOW 3 32 56 VTop 2
SYMATTR InstName R1
SYMATTR Value 33k
SYMBOL res -832 272 R90
WINDOW 0 0 56 VBottom 2
WINDOW 3 32 56 VTop 2
SYMATTR InstName R2
SYMATTR Value 33k
SYMBOL cap -672 256 R90
WINDOW 0 0 32 VBottom 2
WINDOW 3 32 32 VTop 2
SYMATTR InstName CVDD1
SYMATTR Value 1µ
SYMBOL voltage -1632 240 R0
WINDOW 123 0 0 Left 0
WINDOW 39 0 0 Left 0
SYMATTR InstName V2
SYMATTR Value {driver_supply_voltage}
SYMBOL GaN_LTspice_GS66516T_L3V4P1 448 208 R0
SYMATTR InstName DUT1
SYMBOL res -96 224 R90
WINDOW 0 0 56 VBottom 2
WINDOW 3 32 56 VTop 2
SYMATTR InstName R3
SYMATTR Value {on_gate_resistance}
SYMBOL voltage 1600 528 R0
WINDOW 123 0 0 Left 0
WINDOW 39 0 0 Left 0
SYMATTR InstName Vbus
SYMATTR Value {supply_input_voltage}
SYMBOL res 704 448 R90
WINDOW 0 0 56 VBottom 2
WINDOW 3 32 56 VTop 2
SYMATTR InstName R4
SYMATTR Value 1m
SYMBOL ind 784 480 R270
WINDOW 0 32 56 VTop 2
WINDOW 3 5 56 VBottom 2
SYMATTR InstName L1
SYMATTR Value {series_inductance}
SYMBOL diode 560 624 R180
WINDOW 0 24 64 Left 2
WINDOW 3 24 0 Left 2
SYMATTR InstName D1
SYMBOL res -96 144 R90
WINDOW 0 0 56 VBottom 2
WINDOW 3 32 56 VTop 2
SYMATTR InstName R5
SYMATTR Value {off_gate_resistance}
SYMBOL voltage -1392 368 R0
WINDOW 123 0 0 Left 0
WINDOW 39 0 0 Left 0
WINDOW 3 24 96 Left 1
SYMATTR Value PULSE(0 {control_voltage} 0 100n 100n { duty_cycle / switching_frequency} {1 / switching_frequency })
SYMATTR InstName V4
SYMBOL res 384 320 R0
SYMATTR InstName R6
SYMATTR Value 10k
SYMBOL res -832 32 R90
WINDOW 0 0 56 VBottom 2
WINDOW 3 32 56 VTop 2
SYMATTR InstName R7
SYMATTR Value 22
SYMBOL cap 976 560 R0
SYMATTR InstName C1
SYMATTR Value {shunt_capacitance}
SYMBOL res 1280 528 R0
SYMATTR InstName RL
SYMATTR Value {load_resistance}
TEXT -1568 -640 Left 2 !.tran 0 {duration} 0 {max_timestep}
TEXT -1568 -560 Left 2 !.option temp={dut_case_temperature}; Set Tj
TEXT -1568 -504 Left 2 !.param max_timestep=100n\n.param supply_input_voltage=400\n.param load_current=20\n.param current_ripple=4\n.param voltage_ripple=2\n.param dut_case_temperature=25\n.param switching_frequency=100k\n.param duty_cycle=0.5\n.param duration=500u
TEXT -424 -584 Left 2 !.param control_voltage=3.3\n.param driver_supply_voltage=5\n.param on_gate_resistance=20\n.param off_gate_resistance=20\n.param supply_output_voltage=duty_cycle * supply_input_voltage\n.param series_inductance=duty_cycle * (supply_input_voltage - supply_output_voltage) / (current_ripple * switching_frequency)\n.param shunt_capacitance=current_ripple / (8 * switching_frequency * voltage_ripple)\n.param load_resistance=supply_output_voltage / load_current
