Version 4
SHEET 1 2868 1076
WIRE 1600 416 1488 416
WIRE 1600 480 1584 480
WIRE 1584 560 1584 480
WIRE 2080 560 1584 560
WIRE 2528 560 2144 560
WIRE 160 608 -544 608
WIRE 336 608 240 608
WIRE 1584 656 1584 560
WIRE 2000 656 1584 656
WIRE 2144 656 2080 656
WIRE 2528 656 2528 560
WIRE 2528 656 2224 656
WIRE 896 720 752 720
WIRE 1488 720 1488 416
WIRE 1488 720 976 720
WIRE 1584 720 1584 656
WIRE 1680 752 1632 752
WIRE 160 768 -304 768
WIRE 448 768 240 768
WIRE 752 768 752 720
WIRE 752 768 640 768
WIRE 2176 784 1632 784
WIRE 448 800 272 800
WIRE 896 800 640 800
WIRE 1488 800 1488 720
WIRE 1488 800 976 800
WIRE 1520 800 1488 800
WIRE -544 816 -544 608
WIRE -304 816 -304 768
WIRE 1632 816 1584 816
WIRE 336 832 336 608
WIRE 352 832 336 832
WIRE 432 832 416 832
WIRE 448 832 432 832
WIRE 1632 832 1632 816
WIRE 1680 832 1632 832
WIRE 160 848 128 848
WIRE 272 848 272 800
WIRE 272 848 240 848
WIRE 336 864 336 832
WIRE 448 864 336 864
WIRE 1488 896 1488 800
WIRE 2176 896 2176 784
WIRE 2528 896 2528 656
WIRE -304 944 -304 896
WIRE -544 1056 -544 896
WIRE -304 1056 -304 1024
WIRE 128 1056 128 848
WIRE 432 1056 432 832
WIRE 1488 1056 1488 976
WIRE 1632 1056 1632 832
WIRE 2176 1056 2176 976
WIRE 2528 1056 2528 976
FLAG 128 1056 0
FLAG -304 1056 0
FLAG -544 1056 0
FLAG 432 1056 0
FLAG 1600 480 dut_drain_voltage
IOPIN 1600 480 BiDir
FLAG 1680 752 node_dut_tj
IOPIN 1680 752 BiDir
FLAG 1632 1056 0
FLAG 2528 1056 0
FLAG 1680 832 dut_source_voltage
IOPIN 1680 832 BiDir
FLAG 1600 416 dut_gate_voltage
IOPIN 1600 416 BiDir
FLAG 2176 1056 0
FLAG 1488 1056 0
SYMBOL 1EDN7550B 544 816 R0
SYMATTR InstName U1
SYMBOL res 256 752 R90
WINDOW 0 0 56 VBottom 2
WINDOW 3 32 56 VTop 2
SYMATTR InstName R1
SYMATTR Value 33k
SYMBOL res 256 832 R90
WINDOW 0 0 56 VBottom 2
WINDOW 3 32 56 VTop 2
SYMATTR InstName R2
SYMATTR Value 33k
SYMBOL voltage -304 800 R0
WINDOW 123 0 0 Left 0
WINDOW 39 0 0 Left 0
WINDOW 3 24 96 Left 1
SYMATTR Value PULSE(0 {control_voltage} {second_pulse_start} {turn_on_duration} {turn_off_duration} {second_pulse_duration})
SYMATTR InstName V1
SYMBOL cap 416 816 R90
WINDOW 0 0 32 VBottom 2
WINDOW 3 32 32 VTop 2
SYMATTR InstName CVDD1
SYMATTR Value 1µ
SYMBOL voltage -544 800 R0
WINDOW 123 0 0 Left 0
WINDOW 39 0 0 Left 0
SYMATTR InstName V2
SYMATTR Value {driver_supply_voltage}
SYMBOL GaN_LTspice_GS66516T_L3V4P1 1536 768 R0
SYMATTR InstName DUT
SYMBOL res 992 784 R90
WINDOW 0 0 56 VBottom 2
WINDOW 3 32 56 VTop 2
SYMATTR InstName R3
SYMATTR Value {on_gate_resistance}
SYMBOL voltage 2528 880 R0
WINDOW 123 0 0 Left 0
WINDOW 39 0 0 Left 0
SYMATTR InstName V3
SYMATTR Value {load_supply_voltage}
SYMBOL res 2096 640 R90
WINDOW 0 0 56 VBottom 2
WINDOW 3 32 56 VTop 2
SYMATTR InstName R4
SYMATTR Value 1m
SYMBOL ind 2128 672 R270
WINDOW 0 32 56 VTop 2
WINDOW 3 5 56 VBottom 2
SYMATTR InstName L1
SYMATTR Value {load_inductance}
SYMBOL diode 2080 576 R270
WINDOW 0 32 32 VTop 2
WINDOW 3 0 32 VBottom 2
SYMATTR InstName D1
SYMBOL res 992 704 R90
WINDOW 0 0 56 VBottom 2
WINDOW 3 32 56 VTop 2
SYMATTR InstName R5
SYMATTR Value {off_gate_resistance}
SYMBOL voltage -304 928 R0
WINDOW 123 0 0 Left 0
WINDOW 39 0 0 Left 0
WINDOW 3 24 96 Left 1
SYMATTR Value PULSE(0 {control_voltage} {first_pulse_start} {turn_on_duration} {turn_off_duration} {first_pulse_duration})
SYMATTR InstName V4
SYMBOL voltage 2176 880 R0
WINDOW 123 0 0 Left 0
WINDOW 39 0 0 Left 0
SYMATTR InstName V5
SYMATTR Value {dut_case_temperature}
SYMBOL res 1472 880 R0
SYMATTR InstName R6
SYMATTR Value 10k
SYMBOL res 256 592 R90
WINDOW 0 0 56 VBottom 2
WINDOW 3 32 56 VTop 2
SYMATTR InstName R7
SYMATTR Value 22
TEXT -480 -80 Left 2 !.tran 0 {duration} 0 {max_timestep}
TEXT -480 0 Left 2 !.option temp={dut_case_temperature}; Set Tj
TEXT -480 56 Left 2 !.param max_timestep=100n\n.param leading_duration=5u\n.param lagging_duration=5u\n.param load_supply_voltage=400\n.param load_test_current=4\n.param first_pulse_duration=50u\n.param second_pulse_duration=5u\n.param off_duration=5u\n.param on_gate_resistance=10\n.param dut_case_temperature=25\n.param turn_on_duration=100n\n.param turn_off_duration=100n
TEXT 664 -24 Left 2 !.param first_pulse_start=leading_duration\n.param second_pulse_start=leading_duration + first_pulse_duration + off_duration\n.param duration=second_pulse_start + second_pulse_duration + lagging_duration\n.param control_voltage=3.3\n.param driver_supply_voltage=5\n.param off_gate_resistance=20\n.param load_inductance=load_supply_voltage * first_pulse_duration / load_test_current
