Version 4
SHEET 1 2868 680
WIRE 1568 -256 1456 -256
WIRE 1568 -192 1552 -192
WIRE 1552 -112 1552 -192
WIRE 2048 -112 1552 -112
WIRE 2496 -112 2112 -112
WIRE 304 -64 -576 -64
WIRE 1552 -16 1552 -112
WIRE 1968 -16 1552 -16
WIRE 2112 -16 2048 -16
WIRE 2496 -16 2496 -112
WIRE 2496 -16 2192 -16
WIRE 864 48 720 48
WIRE 1184 48 944 48
WIRE 1456 48 1456 -256
WIRE 1456 48 1264 48
WIRE 1552 48 1552 -16
WIRE 1648 80 1600 80
WIRE 128 96 -336 96
WIRE 416 96 208 96
WIRE 720 96 720 48
WIRE 720 96 608 96
WIRE 2144 112 1600 112
WIRE 2176 112 2144 112
WIRE 416 128 240 128
WIRE 864 128 608 128
WIRE 1184 128 944 128
WIRE 1456 128 1456 48
WIRE 1456 128 1264 128
WIRE 1488 128 1456 128
WIRE -576 144 -576 -64
WIRE -336 144 -336 96
WIRE 1600 144 1552 144
WIRE 304 160 304 -64
WIRE 320 160 304 160
WIRE 400 160 384 160
WIRE 416 160 400 160
WIRE 1600 160 1600 144
WIRE 1648 160 1600 160
WIRE 128 176 96 176
WIRE 240 176 240 128
WIRE 240 176 208 176
WIRE 304 192 304 160
WIRE 416 192 304 192
WIRE 1456 224 1456 128
WIRE 1600 224 1600 160
WIRE 2144 224 2144 112
WIRE 2496 224 2496 -16
WIRE -336 272 -336 224
WIRE -576 384 -576 224
WIRE -336 384 -336 352
WIRE 96 384 96 176
WIRE 400 384 400 160
WIRE 1456 384 1456 304
WIRE 1600 384 1600 304
WIRE 2144 384 2144 304
WIRE 2496 384 2496 304
FLAG 96 384 0
FLAG -336 384 0
FLAG -576 384 0
FLAG 400 384 0
FLAG 1568 -192 node_dut_drain
IOPIN 1568 -192 BiDir
FLAG 1648 80 node_dut_tj
IOPIN 1648 80 BiDir
FLAG 2176 112 node_dut_tj
IOPIN 2176 112 BiDir
FLAG 1600 384 0
FLAG 2496 384 0
FLAG 1648 160 node_dut_source
IOPIN 1648 160 BiDir
FLAG 1568 -256 node_dut_gate
IOPIN 1568 -256 BiDir
FLAG 2144 384 0
FLAG 1456 384 0
SYMBOL 1EDN7550B 512 144 R0
SYMATTR InstName U1
SYMBOL res 224 80 R90
WINDOW 0 0 56 VBottom 2
WINDOW 3 32 56 VTop 2
SYMATTR InstName R1
SYMATTR Value 33k
SYMBOL res 224 160 R90
WINDOW 0 0 56 VBottom 2
WINDOW 3 32 56 VTop 2
SYMATTR InstName R2
SYMATTR Value 33k
SYMBOL voltage -336 128 R0
WINDOW 123 0 0 Left 0
WINDOW 39 0 0 Left 0
WINDOW 3 24 96 Left 1
SYMATTR Value PULSE(0 {control_voltage} {p1_on_start_time + p1_on_time + dead_time} 1n 1n {p2_on_time})
SYMATTR InstName V1
SYMBOL cap 384 144 R90
WINDOW 0 0 32 VBottom 2
WINDOW 3 32 32 VTop 2
SYMATTR InstName CVDD1
SYMATTR Value 20µ
SYMBOL voltage -576 128 R0
WINDOW 123 0 0 Left 0
WINDOW 39 0 0 Left 0
SYMATTR InstName V2
SYMATTR Value {driver_voltage}
SYMBOL GaN_LTspice_GS66516T_L3V4P1 1504 96 R0
SYMATTR InstName DUT
SYMBOL res 960 112 R90
WINDOW 0 0 56 VBottom 2
WINDOW 3 32 56 VTop 2
SYMATTR InstName R3
SYMATTR Value {on_gate_resistance}
SYMBOL voltage 2496 208 R0
WINDOW 123 0 0 Left 0
WINDOW 39 0 0 Left 0
SYMATTR InstName V3
SYMATTR Value {dc_link_voltage}
SYMBOL res 2064 -32 R90
WINDOW 0 0 56 VBottom 2
WINDOW 3 32 56 VTop 2
SYMATTR InstName R4
SYMATTR Value 1m
SYMBOL ind 2096 0 R270
WINDOW 0 32 56 VTop 2
WINDOW 3 5 56 VBottom 2
SYMATTR InstName L1
SYMATTR Value {load_inductance}
SYMBOL diode 2048 -96 R270
WINDOW 0 32 32 VTop 2
WINDOW 3 0 32 VBottom 2
SYMATTR InstName D1
SYMBOL res 960 32 R90
WINDOW 0 0 56 VBottom 2
WINDOW 3 32 56 VTop 2
SYMATTR InstName R5
SYMATTR Value {off_gate_resistance}
SYMBOL ind 1168 64 R270
WINDOW 0 32 56 VTop 2
WINDOW 3 5 56 VBottom 2
SYMATTR InstName L2
SYMATTR Value {gate_inductance}
SYMBOL ind 1168 144 R270
WINDOW 0 32 56 VTop 2
WINDOW 3 5 56 VBottom 2
SYMATTR InstName L3
SYMATTR Value {gate_inductance}
SYMBOL ind 1584 208 R0
SYMATTR InstName L4
SYMATTR Value {source_external_inductance}
SYMBOL voltage -336 256 R0
WINDOW 123 0 0 Left 0
WINDOW 39 0 0 Left 0
WINDOW 3 24 96 Left 1
SYMATTR Value PULSE(0 {control_voltage} {p1_on_start_time} 10n 10n {p1_on_time})
SYMATTR InstName V4
SYMBOL voltage 2144 208 R0
WINDOW 123 0 0 Left 0
WINDOW 39 0 0 Left 0
SYMATTR InstName V5
SYMATTR Value {dut_case_temperature}
SYMBOL res 1440 208 R0
SYMATTR InstName R6
SYMATTR Value 10k
TEXT -584 -784 Left 2 !.tran 0 {duration} 0 100n
TEXT -584 -704 Left 2 !.option temp={dut_case_temperature}; Set Tj
TEXT -584 -648 Left 2 !.param control_voltage=3.3\n.param driver_voltage=5\n.param dc_link_voltage=400\n.param load_current=55\n.param p1_on_start_time=1e-05\n.param p1_on_time=2e-06\n.param p2_on_time=1e-06\n.param dut_case_temperature=20\n.param dead_time=1e-06\n.param end_dead_time=5u\n.param duration=p1_on_start_time + p1_on_time + dead_time + end_dead_time\n.param on_gate_resistance=20\n.param off_gate_resistance=2 \n.param gate_inductance=3n \n.param source_external_inductance=10p \n.param load_inductance=dc_link_voltage * p1_on_time / load_current
